<?xml version="1.0" encoding="UTF-8"?>

<!-- generated on 2026-03-13 14:58:19.506595 by Eclipse SUMO randomTrips.py v1_26_0+0000-fa7df22d7f1
<configuration>
    <net-file value="network.net.xml"/>
    <route-file value="routes.rou.xml"/>
    <end value="2000.0"/>
    <period value="5.0"/>
</configuration>
-->

<!-- generated on 2026-03-13T14:58:19.416827+05:30 by Eclipse SUMO duarouter 1.26.0
<duarouterConfiguration xmlns:xsi="http://www.w3.org/2001/XMLSchema-instance" xsi:noNamespaceSchemaLocation="http://sumo.dlr.de/xsd/duarouterConfiguration.xsd">

    <input>
        <net-file value="network.net.xml"/>
        <route-files value="trips.trips.xml"/>
    </input>

    <output>
        <output-file value="routes.rou.xml"/>
        <alternatives-output value="NUL"/>
    </output>

    <time>
        <begin value="0"/>
        <end value="2000.0"/>
    </time>

    <report>
        <no-warnings value="true"/>
        <ignore-errors value="true"/>
        <no-step-log value="true"/>
    </report>

</duarouterConfiguration>
-->

<routes xmlns:xsi="http://www.w3.org/2001/XMLSchema-instance" xsi:noNamespaceSchemaLocation="http://sumo.dlr.de/xsd/routes_file.xsd">
    <vehicle id="0" depart="0.00">
        <route edges="D4D3 D3D2 D2D1 D1C1 C1B1 B1A1 A1A2"/>
    </vehicle>
    <vehicle id="1" depart="5.00">
        <route edges="B4B5 B5B4 B4B3 B3B2 B2C2"/>
    </vehicle>
    <vehicle id="2" depart="10.00">
        <route edges="E1F1 F1E1 E1D1 D1D2 D2D3 D3D4 D4D5 D5E5"/>
    </vehicle>
    <vehicle id="3" depart="15.00">
        <route edges="F1F0 F0E0 E0D0 D0C0 C0B0 B0A0 A0A1 A1A2 A2A3 A3B3"/>
    </vehicle>
    <vehicle id="4" depart="20.00">
        <route edges="C3C2 C2C1 C1B1 B1A1 A1A2"/>
    </vehicle>
    <vehicle id="5" depart="25.00">
        <route edges="B2C2 C2D2 D2D1 D1D0 D0C0"/>
    </vehicle>
    <vehicle id="6" depart="30.00">
        <route edges="A1A2 A2B2 B2A2"/>
    </vehicle>
    <vehicle id="7" depart="35.00">
        <route edges="D4D5 D5D4 D4D3 D3D2 D2D1 D1D2"/>
    </vehicle>
    <vehicle id="8" depart="40.00">
        <route edges="B2C2 C2D2 D2E2"/>
    </vehicle>
    <vehicle id="9" depart="45.00">
        <route edges="E4D4 D4D3 D3D2 D2D1 D1D0 D0C0 C0B0 B0A0 A0A1"/>
    </vehicle>
    <vehicle id="10" depart="50.00">
        <route edges="E3F3 F3F2 F2F1 F1F0 F0E0 E0E1"/>
    </vehicle>
    <vehicle id="11" depart="55.00">
        <route edges="C0D0 D0C0 C0B0 B0C0"/>
    </vehicle>
    <vehicle id="12" depart="60.00">
        <route edges="F3F4 F4E4 E4D4 D4C4 C4C3 C3C2 C2C1 C1C0 C0D0"/>
    </vehicle>
    <vehicle id="13" depart="65.00">
        <route edges="A4A3"/>
    </vehicle>
    <vehicle id="14" depart="70.00">
        <route edges="E5D5 D5D4 D4D3 D3D2"/>
    </vehicle>
    <vehicle id="15" depart="75.00">
        <route edges="E3F3 F3F2 F2F1 F1E1 E1E2"/>
    </vehicle>
    <vehicle id="16" depart="80.00">
        <route edges="D1D0 D0E0 E0E1 E1E2 E2E3 E3E4 E4F4 F4F3"/>
    </vehicle>
    <vehicle id="17" depart="85.00">
        <route edges="C2B2 B2B1 B1C1 C1D1 D1E1"/>
    </vehicle>
    <vehicle id="18" depart="90.00">
        <route edges="E4E5 E5D5 D5D4 D4D3 D3E3"/>
    </vehicle>
    <vehicle id="19" depart="95.00">
        <route edges="E5F5 F5F4 F4F3 F3F2 F2E2 E2D2 D2D3"/>
    </vehicle>
    <vehicle id="20" depart="100.00">
        <route edges="E0F0 F0F1 F1F2 F2E2 E2D2 D2C2 C2B2 B2A2 A2A1"/>
    </vehicle>
    <vehicle id="21" depart="105.00">
        <route edges="B3A3 A3A4 A4B4 B4C4"/>
    </vehicle>
    <vehicle id="22" depart="110.00">
        <route edges="A3A4 A4B4 B4B3 B3A3"/>
    </vehicle>
    <vehicle id="23" depart="115.00">
        <route edges="A4A5 A5B5 B5B4 B4B5"/>
    </vehicle>
    <vehicle id="24" depart="120.00">
        <route edges="D4D3 D3D2 D2D1 D1C1 C1C2"/>
    </vehicle>
    <vehicle id="25" depart="125.00">
        <route edges="C1D1 D1C1 C1B1 B1B2 B2B3"/>
    </vehicle>
    <vehicle id="26" depart="130.00">
        <route edges="B4B3 B3C3 C3D3 D3E3 E3F3 F3E3"/>
    </vehicle>
    <vehicle id="27" depart="135.00">
        <route edges="D4D5 D5D4 D4D3 D3D4"/>
    </vehicle>
    <vehicle id="28" depart="140.00">
        <route edges="B1B0 B0C0 C0D0 D0E0 E0E1 E1E2"/>
    </vehicle>
    <vehicle id="29" depart="145.00">
        <route edges="B1A1 A1A2 A2B2 B2C2 C2B2"/>
    </vehicle>
    <vehicle id="30" depart="150.00">
        <route edges="F5E5 E5D5 D5D4 D4D3"/>
    </vehicle>
    <vehicle id="31" depart="155.00">
        <route edges="D1E1 E1E0 E0D0"/>
    </vehicle>
    <vehicle id="32" depart="160.00">
        <route edges="E5D5 D5D4 D4E4 E4E3 E3D3"/>
    </vehicle>
    <vehicle id="33" depart="165.00">
        <route edges="B3A3 A3A2 A2A1 A1A2"/>
    </vehicle>
    <vehicle id="34" depart="170.00">
        <route edges="B5C5 C5C4 C4B4 B4B3"/>
    </vehicle>
    <vehicle id="35" depart="175.00">
        <route edges="B2B3 B3C3 C3D3 D3E3 E3F3 F3F2"/>
    </vehicle>
    <vehicle id="36" depart="180.00">
        <route edges="F0F1 F1F2 F2F3 F3F4 F4F5 F5E5 E5D5 D5C5 C5B5 B5C5"/>
    </vehicle>
    <vehicle id="37" depart="185.00">
        <route edges="D4E4 E4E3 E3E2 E2D2 D2C2 C2C3"/>
    </vehicle>
    <vehicle id="38" depart="190.00">
        <route edges="F2E2 E2D2 D2C2 C2C3 C3C4 C4C5"/>
    </vehicle>
    <vehicle id="39" depart="195.00">
        <route edges="B4A4 A4A3 A3B3 B3B4"/>
    </vehicle>
    <vehicle id="40" depart="200.00">
        <route edges="D2C2 C2B2 B2B3 B3B4 B4A4"/>
    </vehicle>
    <vehicle id="41" depart="205.00">
        <route edges="D2E2 E2F2 F2F1 F1F0"/>
    </vehicle>
    <vehicle id="42" depart="210.00">
        <route edges="C2C3 C3B3 B3B2 B2C2"/>
    </vehicle>
    <vehicle id="43" depart="215.00">
        <route edges="F5F4 F4F3 F3F2 F2F1 F1F0 F0E0 E0D0 D0D1"/>
    </vehicle>
    <vehicle id="44" depart="220.00">
        <route edges="A3B3 B3B2 B2A2 A2A1"/>
    </vehicle>
    <vehicle id="45" depart="225.00">
        <route edges="A4B4 B4C4 C4D4 D4C4"/>
    </vehicle>
    <vehicle id="46" depart="230.00">
        <route edges="E3E4 E4D4 D4C4 C4C3 C3C2"/>
    </vehicle>
    <vehicle id="47" depart="235.00">
        <route edges="A2B2 B2C2 C2B2"/>
    </vehicle>
    <vehicle id="48" depart="240.00">
        <route edges="F5F4 F4F3 F3F2 F2F1 F1E1 E1D1 D1C1"/>
    </vehicle>
    <vehicle id="49" depart="245.00">
        <route edges="F4F3 F3E3 E3E4 E4E5 E5F5"/>
    </vehicle>
    <vehicle id="50" depart="250.00">
        <route edges="A0B0 B0C0 C0D0 D0D1 D1E1 E1E0"/>
    </vehicle>
    <vehicle id="51" depart="255.00">
        <route edges="D5E5 E5E4 E4E3 E3E2 E2E1 E1D1 D1D0"/>
    </vehicle>
    <vehicle id="52" depart="260.00">
        <route edges="B4B3 B3C3 C3C4 C4D4 D4D3"/>
    </vehicle>
    <vehicle id="53" depart="265.00">
        <route edges="A4B4 B4C4 C4C3 C3D3"/>
    </vehicle>
    <vehicle id="54" depart="270.00">
        <route edges="C4C3 C3D3 D3E3 E3F3 F3F4"/>
    </vehicle>
    <vehicle id="55" depart="275.00">
        <route edges="F0F1 F1F2 F2F3 F3F4 F4E4 E4D4 D4C4 C4B4 B4A4"/>
    </vehicle>
    <vehicle id="56" depart="280.00">
        <route edges="D0C0 C0B0 B0B1 B1B2"/>
    </vehicle>
    <vehicle id="57" depart="285.00">
        <route edges="F2E2 E2F2 F2F1 F1F0 F0E0"/>
    </vehicle>
    <vehicle id="58" depart="290.00">
        <route edges="B5A5 A5A4 A4B4 B4C4 C4D4 D4D3"/>
    </vehicle>
    <vehicle id="59" depart="295.00">
        <route edges="D3D4 D4C4 C4B4 B4B3 B3B2 B2B1 B1B0 B0C0"/>
    </vehicle>
    <vehicle id="60" depart="300.00">
        <route edges="E2E3 E3D3 D3D2 D2D1 D1D0"/>
    </vehicle>
    <vehicle id="61" depart="305.00">
        <route edges="E3D3 D3D2 D2D1 D1C1"/>
    </vehicle>
    <vehicle id="62" depart="310.00">
        <route edges="A0A1 A1B1 B1C1 C1C0 C0B0"/>
    </vehicle>
    <vehicle id="63" depart="315.00">
        <route edges="A1A0 A0B0 B0C0 C0D0 D0E0 E0F0 F0F1 F1F2 F2F3"/>
    </vehicle>
    <vehicle id="64" depart="320.00">
        <route edges="F0F1 F1F2 F2F3 F3F4 F4E4 E4E5"/>
    </vehicle>
    <vehicle id="65" depart="325.00">
        <route edges="B5B4 B4B3 B3B2 B2A2 A2A3"/>
    </vehicle>
    <vehicle id="66" depart="330.00">
        <route edges="F0F1 F1F2 F2F3 F3F2"/>
    </vehicle>
    <vehicle id="67" depart="335.00">
        <route edges="A3B3 B3B4 B4B5 B5C5 C5C4"/>
    </vehicle>
    <vehicle id="68" depart="340.00">
        <route edges="A3A2 A2B2 B2C2 C2D2 D2E2 E2E3"/>
    </vehicle>
    <vehicle id="69" depart="345.00">
        <route edges="E2E3 E3E4 E4D4 D4C4 C4B4 B4A4 A4A5 A5B5"/>
    </vehicle>
    <vehicle id="70" depart="350.00">
        <route edges="C5B5 B5B4 B4B3 B3B2 B2B1 B1C1 C1D1 D1D2"/>
    </vehicle>
    <vehicle id="71" depart="355.00">
        <route edges="B4A4 A4B4 B4C4 C4D4 D4E4 E4F4 F4F3 F3F2 F2F1 F1F0 F0E0"/>
    </vehicle>
    <vehicle id="72" depart="360.00">
        <route edges="C3C2 C2B2 B2B3"/>
    </vehicle>
    <vehicle id="73" depart="365.00">
        <route edges="D1D0 D0E0 E0E1 E1E2"/>
    </vehicle>
    <vehicle id="74" depart="370.00">
        <route edges="B2B1 B1B2 B2B3 B3B4 B4B5 B5C5"/>
    </vehicle>
    <vehicle id="75" depart="375.00">
        <route edges="F5F4 F4E4 E4D4 D4D5"/>
    </vehicle>
    <vehicle id="76" depart="380.00">
        <route edges="C3D3 D3D2 D2D1 D1D0 D0E0"/>
    </vehicle>
    <vehicle id="77" depart="385.00">
        <route edges="A5A4 A4A3 A3A2 A2B2 B2C2"/>
    </vehicle>
    <vehicle id="78" depart="390.00">
        <route edges="C0D0 D0D1 D1D2 D2E2"/>
    </vehicle>
    <vehicle id="79" depart="395.00">
        <route edges="B3A3 A3A2 A2B2 B2C2"/>
    </vehicle>
    <vehicle id="80" depart="400.00">
        <route edges="A3A2 A2B2 B2C2 C2D2 D2D3 D3D4 D4C4"/>
    </vehicle>
    <vehicle id="81" depart="405.00">
        <route edges="B3A3 A3A2 A2A1 A1B1 B1C1 C1D1 D1E1 E1F1 F1F2"/>
    </vehicle>
    <vehicle id="82" depart="410.00">
        <route edges="E5F5 F5F4 F4E4 E4D4 D4C4 C4B4 B4A4 A4A3 A3A2"/>
    </vehicle>
    <vehicle id="83" depart="415.00">
        <route edges="B3B2 B2C2 C2C3 C3C4 C4C5 C5D5 D5D4"/>
    </vehicle>
    <vehicle id="84" depart="420.00">
        <route edges="B2B3 B3B4 B4A4 A4A5 A5B5"/>
    </vehicle>
    <vehicle id="85" depart="425.00">
        <route edges="F3E3 E3D3 D3D2 D2D1"/>
    </vehicle>
    <vehicle id="86" depart="430.00">
        <route edges="C4D4 D4E4 E4E3 E3E2"/>
    </vehicle>
    <vehicle id="87" depart="435.00">
        <route edges="E3F3 F3F2 F2F1 F1E1 E1D1 D1C1 C1B1 B1C1"/>
    </vehicle>
    <vehicle id="88" depart="440.00">
        <route edges="A4A3 A3B3 B3C3 C3C4"/>
    </vehicle>
    <vehicle id="89" depart="445.00">
        <route edges="C3C2 C2C3 C3C4 C4D4"/>
    </vehicle>
    <vehicle id="90" depart="450.00">
        <route edges="E1E2 E2E3 E3E4 E4E5 E5D5 D5D4"/>
    </vehicle>
    <vehicle id="91" depart="455.00">
        <route edges="F5E5 E5D5 D5C5 C5B5 B5A5 A5A4 A4A3"/>
    </vehicle>
    <vehicle id="92" depart="460.00">
        <route edges="C2D2 D2D1 D1C1 C1C0 C0D0"/>
    </vehicle>
    <vehicle id="93" depart="465.00">
        <route edges="E5F5 F5F4 F4F3 F3E3 E3D3 D3C3 C3B3 B3B4"/>
    </vehicle>
    <vehicle id="94" depart="470.00">
        <route edges="B1C1 C1C2 C2C3 C3C4 C4B4"/>
    </vehicle>
    <vehicle id="95" depart="475.00">
        <route edges="C3C2 C2B2 B2B3 B3B4 B4B5"/>
    </vehicle>
    <vehicle id="96" depart="480.00">
        <route edges="B3B4 B4C4 C4D4 D4E4 E4F4 F4F3 F3F2 F2F1"/>
    </vehicle>
    <vehicle id="97" depart="485.00">
        <route edges="C4B4 B4B5 B5C5 C5D5 D5E5 E5F5"/>
    </vehicle>
    <vehicle id="98" depart="490.00">
        <route edges="D1E1 E1D1 D1C1 C1B1 B1A1 A1A2 A2A3"/>
    </vehicle>
    <vehicle id="99" depart="495.00">
        <route edges="F5F4 F4E4 E4F4"/>
    </vehicle>
    <vehicle id="100" depart="500.00">
        <route edges="F4F3 F3F2 F2F3"/>
    </vehicle>
    <vehicle id="101" depart="505.00">
        <route edges="E5D5 D5C5 C5B5 B5B4 B4B3 B3B2 B2B1 B1A1"/>
    </vehicle>
    <vehicle id="102" depart="510.00">
        <route edges="C5C4 C4C3 C3C2 C2B2 B2B3"/>
    </vehicle>
    <vehicle id="103" depart="515.00">
        <route edges="C2D2 D2C2 C2B2 B2A2 A2B2"/>
    </vehicle>
    <vehicle id="104" depart="520.00">
        <route edges="C2B2 B2B3 B3B4 B4C4 C4D4 D4E4 E4F4 F4F5 F5E5"/>
    </vehicle>
    <vehicle id="105" depart="525.00">
        <route edges="B4A4 A4B4 B4C4 C4D4 D4E4 E4E3 E3E2"/>
    </vehicle>
    <vehicle id="106" depart="530.00">
        <route edges="C4C3 C3C2"/>
    </vehicle>
    <vehicle id="107" depart="535.00">
        <route edges="F3F4 F4E4 E4E5 E5F5 F5F4"/>
    </vehicle>
    <vehicle id="108" depart="540.00">
        <route edges="D1E1 E1E0"/>
    </vehicle>
    <vehicle id="109" depart="545.00">
        <route edges="B0C0 C0C1 C1C2 C2C3 C3C4 C4C5 C5B5 B5A5"/>
    </vehicle>
    <vehicle id="110" depart="550.00">
        <route edges="F4F3 F3F2 F2E2 E2D2 D2D3"/>
    </vehicle>
    <vehicle id="111" depart="555.00">
        <route edges="D1D2 D2E2 E2D2"/>
    </vehicle>
    <vehicle id="112" depart="560.00">
        <route edges="A2A3 A3B3 B3C3 C3D3 D3D2 D2E2"/>
    </vehicle>
    <vehicle id="113" depart="565.00">
        <route edges="D0C0 C0C1 C1C2 C2C3 C3C4 C4C5 C5D5 D5E5 E5E4"/>
    </vehicle>
    <vehicle id="114" depart="570.00">
        <route edges="B0C0 C0D0 D0E0 E0F0 F0F1 F1F2 F2F3 F3F4 F4E4"/>
    </vehicle>
    <vehicle id="115" depart="575.00">
        <route edges="A3A4 A4B4 B4B3 B3B2 B2B1 B1C1"/>
    </vehicle>
    <vehicle id="116" depart="580.00">
        <route edges="D3C3 C3C4 C4C5 C5D5 D5E5"/>
    </vehicle>
    <vehicle id="117" depart="585.00">
        <route edges="B3B2 B2B3 B3B4 B4B5 B5A5 A5A4"/>
    </vehicle>
    <vehicle id="118" depart="590.00">
        <route edges="F1E1 E1D1 D1C1 C1B1 B1B2 B2B3 B3B4"/>
    </vehicle>
    <vehicle id="119" depart="595.00">
        <route edges="D3C3 C3D3 D3E3"/>
    </vehicle>
    <vehicle id="120" depart="600.00">
        <route edges="C3C2 C2D2 D2E2"/>
    </vehicle>
    <vehicle id="121" depart="605.00">
        <route edges="D0E0 E0F0 F0F1 F1F2 F2F3 F3E3"/>
    </vehicle>
    <vehicle id="122" depart="610.00">
        <route edges="B2B1 B1C1 C1D1 D1E1 E1D1"/>
    </vehicle>
    <vehicle id="123" depart="615.00">
        <route edges="B3B2 B2C2 C2C3"/>
    </vehicle>
    <vehicle id="124" depart="620.00">
        <route edges="D5D4 D4C4 C4C5 C5B5 B5A5"/>
    </vehicle>
    <vehicle id="125" depart="625.00">
        <route edges="B5C5 C5D5 D5E5 E5E4 E4E3 E3E2 E2E1"/>
    </vehicle>
    <vehicle id="126" depart="630.00">
        <route edges="A3A2 A2B2 B2B3 B3B4 B4C4 C4C3"/>
    </vehicle>
    <vehicle id="127" depart="635.00">
        <route edges="F5F4"/>
    </vehicle>
    <vehicle id="128" depart="640.00">
        <route edges="A3A2 A2B2 B2B3"/>
    </vehicle>
    <vehicle id="129" depart="645.00">
        <route edges="B4A4 A4A3 A3A2 A2B2 B2C2 C2D2 D2E2 E2F2 F2F3"/>
    </vehicle>
    <vehicle id="130" depart="650.00">
        <route edges="F0F1"/>
    </vehicle>
    <vehicle id="131" depart="655.00">
        <route edges="C1D1 D1C1 C1B1 B1B0 B0C0"/>
    </vehicle>
    <vehicle id="132" depart="660.00">
        <route edges="E4F4 F4F3 F3F2 F2F1 F1E1 E1E0 E0F0"/>
    </vehicle>
    <vehicle id="133" depart="665.00">
        <route edges="D3D4 D4E4 E4F4 F4F5 F5E5"/>
    </vehicle>
    <vehicle id="134" depart="670.00">
        <route edges="D4E4 E4E3 E3E2 E2E1 E1E0 E0D0 D0C0 C0B0 B0A0 A0A1"/>
    </vehicle>
    <vehicle id="135" depart="675.00">
        <route edges="E4E3 E3D3 D3D4 D4D5 D5C5 C5B5 B5A5"/>
    </vehicle>
    <vehicle id="136" depart="680.00">
        <route edges="D5C5 C5D5 D5E5 E5F5 F5F4 F4F3 F3E3"/>
    </vehicle>
    <vehicle id="137" depart="685.00">
        <route edges="B0A0 A0A1 A1A2 A2A3 A3A4 A4B4"/>
    </vehicle>
    <vehicle id="138" depart="690.00">
        <route edges="A4A5 A5B5 B5C5 C5D5 D5D4 D4D3 D3D2 D2D1 D1E1"/>
    </vehicle>
    <vehicle id="139" depart="695.00">
        <route edges="B4B3 B3C3 C3D3 D3D2"/>
    </vehicle>
    <vehicle id="140" depart="700.00">
        <route edges="E1E0 E0D0 D0C0 C0C1 C1C2 C2B2 B2B1"/>
    </vehicle>
    <vehicle id="141" depart="705.00">
        <route edges="D4D3 D3C3 C3B3 B3B4 B4A4"/>
    </vehicle>
    <vehicle id="142" depart="710.00">
        <route edges="C5C4 C4C3 C3C2 C2C1 C1D1 D1E1 E1F1 F1F2"/>
    </vehicle>
    <vehicle id="143" depart="715.00">
        <route edges="E5D5 D5C5 C5B5 B5A5 A5A4 A4A3"/>
    </vehicle>
    <vehicle id="144" depart="720.00">
        <route edges="C3C2 C2B2 B2B3 B3B4 B4B5"/>
    </vehicle>
    <vehicle id="145" depart="725.00">
        <route edges="A0A1 A1A2 A2B2 B2C2 C2D2 D2E2 E2F2"/>
    </vehicle>
    <vehicle id="146" depart="730.00">
        <route edges="D4D3 D3C3 C3B3 B3B4 B4A4"/>
    </vehicle>
    <vehicle id="147" depart="735.00">
        <route edges="E1F1 F1E1 E1D1 D1E1"/>
    </vehicle>
    <vehicle id="148" depart="740.00">
        <route edges="C3C4 C4B4 B4A4 A4A3 A3A2 A2A1 A1A0 A0B0"/>
    </vehicle>
    <vehicle id="149" depart="745.00">
        <route edges="A3A4 A4B4 B4B3 B3B2 B2B1 B1B0 B0C0 C0D0 D0E0 E0F0 F0F1"/>
    </vehicle>
    <vehicle id="150" depart="750.00">
        <route edges="F1F2 F2E2 E2E1 E1D1 D1D2"/>
    </vehicle>
    <vehicle id="151" depart="755.00">
        <route edges="E4F4 F4F3 F3F2 F2E2 E2D2 D2D3"/>
    </vehicle>
    <vehicle id="152" depart="760.00">
        <route edges="B0B1 B1B2 B2B3 B3B4 B4A4 A4A5 A5B5"/>
    </vehicle>
    <vehicle id="153" depart="765.00">
        <route edges="B5B4 B4B3 B3B2 B2B1 B1C1 C1D1 D1E1 E1F1 F1F0"/>
    </vehicle>
    <vehicle id="154" depart="770.00">
        <route edges="E3E4 E4E5 E5F5"/>
    </vehicle>
    <vehicle id="155" depart="775.00">
        <route edges="F1F0 F0E0 E0D0 D0C0 C0B0 B0B1 B1B2 B2B3"/>
    </vehicle>
    <vehicle id="156" depart="780.00">
        <route edges="B3B4 B4A4 A4A5"/>
    </vehicle>
    <vehicle id="157" depart="785.00">
        <route edges="E3D3 D3E3 E3F3 F3F2 F2F1 F1E1"/>
    </vehicle>
    <vehicle id="158" depart="790.00">
        <route edges="C2D2 D2D3 D3E3"/>
    </vehicle>
    <vehicle id="159" depart="795.00">
        <route edges="B0C0 C0D0 D0E0 E0F0 F0F1 F1F2 F2F3"/>
    </vehicle>
    <vehicle id="160" depart="800.00">
        <route edges="E5F5 F5F4 F4F5"/>
    </vehicle>
    <vehicle id="161" depart="805.00">
        <route edges="E4D4 D4D3 D3D2 D2D1 D1D0 D0E0 E0F0 F0F1"/>
    </vehicle>
    <vehicle id="162" depart="810.00">
        <route edges="A1A0 A0B0 B0C0 C0D0 D0E0 E0E1 E1F1"/>
    </vehicle>
    <vehicle id="163" depart="815.00">
        <route edges="C0C1 C1C2 C2D2 D2E2 E2F2 F2F3"/>
    </vehicle>
    <vehicle id="164" depart="820.00">
        <route edges="E3F3 F3E3 E3E4 E4E5 E5F5"/>
    </vehicle>
    <vehicle id="165" depart="825.00">
        <route edges="E4D4 D4C4 C4B4 B4B3"/>
    </vehicle>
    <vehicle id="166" depart="830.00">
        <route edges="E3E2 E2D2 D2C2 C2B2 B2A2 A2A3 A3A4 A4A5"/>
    </vehicle>
    <vehicle id="167" depart="835.00">
        <route edges="F0E0 E0E1 E1E2 E2E3 E3E4 E4E5 E5F5"/>
    </vehicle>
    <vehicle id="168" depart="840.00">
        <route edges="B2C2 C2D2 D2E2 E2E3 E3E4 E4D4"/>
    </vehicle>
    <vehicle id="169" depart="845.00">
        <route edges="C4C5 C5B5 B5B4"/>
    </vehicle>
    <vehicle id="170" depart="850.00">
        <route edges="E3E4 E4D4 D4D3 D3C3 C3B3 B3A3"/>
    </vehicle>
    <vehicle id="171" depart="855.00">
        <route edges="A1A0 A0B0 B0B1 B1B2 B2A2"/>
    </vehicle>
    <vehicle id="172" depart="860.00">
        <route edges="C0C1 C1C2 C2C3 C3C4 C4C5 C5D5 D5E5 E5F5"/>
    </vehicle>
    <vehicle id="173" depart="865.00">
        <route edges="F4F3 F3E3 E3D3 D3C3 C3B3 B3B4 B4B5"/>
    </vehicle>
    <vehicle id="174" depart="870.00">
        <route edges="D4D3 D3D2 D2C2 C2C3"/>
    </vehicle>
    <vehicle id="175" depart="875.00">
        <route edges="F4F5 F5E5 E5D5 D5D4 D4D3 D3D2 D2D1 D1D0"/>
    </vehicle>
    <vehicle id="176" depart="880.00">
        <route edges="F3E3 E3D3 D3C3 C3B3 B3A3 A3A4 A4B4"/>
    </vehicle>
    <vehicle id="177" depart="885.00">
        <route edges="F4F3 F3F2 F2F1 F1E1 E1D1 D1C1 C1B1 B1B2"/>
    </vehicle>
    <vehicle id="178" depart="890.00">
        <route edges="F4E4 E4D4 D4C4 C4B4 B4A4"/>
    </vehicle>
    <vehicle id="179" depart="895.00">
        <route edges="A4B4 B4C4 C4C3 C3D3"/>
    </vehicle>
    <vehicle id="180" depart="900.00">
        <route edges="E1E2 E2E3 E3E4 E4D4 D4C4 C4B4 B4B5 B5C5"/>
    </vehicle>
    <vehicle id="181" depart="905.00">
        <route edges="D3D2 D2D1 D1D0 D0D1"/>
    </vehicle>
    <vehicle id="182" depart="910.00">
        <route edges="C2C1 C1D1 D1D2 D2D3"/>
    </vehicle>
    <vehicle id="183" depart="915.00">
        <route edges="B3C3 C3D3 D3E3 E3E2 E2E1 E1D1"/>
    </vehicle>
    <vehicle id="184" depart="920.00">
        <route edges="A0A1 A1A2 A2B2 B2C2 C2D2 D2E2 E2F2 F2F3"/>
    </vehicle>
    <vehicle id="185" depart="925.00">
        <route edges="D1D0 D0D1 D1E1 E1E0"/>
    </vehicle>
    <vehicle id="186" depart="930.00">
        <route edges="E2D2 D2D3 D3D4 D4D5 D5D4"/>
    </vehicle>
    <vehicle id="187" depart="935.00">
        <route edges="C1C2 C2C3 C3B3 B3A3 A3A2"/>
    </vehicle>
    <vehicle id="188" depart="940.00">
        <route edges="D5C5 C5C4 C4C3 C3C2 C2C1 C1C0 C0C1"/>
    </vehicle>
    <vehicle id="189" depart="945.00">
        <route edges="B5C5 C5D5 D5E5 E5D5"/>
    </vehicle>
    <vehicle id="190" depart="950.00">
        <route edges="E1E0 E0D0 D0C0 C0B0 B0B1 B1B2 B2B3 B3B4 B4B5 B5B4"/>
    </vehicle>
    <vehicle id="191" depart="955.00">
        <route edges="B5C5 C5C4 C4C3 C3B3"/>
    </vehicle>
    <vehicle id="192" depart="960.00">
        <route edges="C2D2 D2D3 D3D4 D4D5 D5C5 C5B5 B5A5"/>
    </vehicle>
    <vehicle id="193" depart="965.00">
        <route edges="A5B5 B5C5 C5C4 C4C3 C3C2"/>
    </vehicle>
    <vehicle id="194" depart="970.00">
        <route edges="F3E3 E3D3 D3D4 D4D5 D5E5"/>
    </vehicle>
    <vehicle id="195" depart="975.00">
        <route edges="F1F2 F2F3 F3E3 E3D3 D3D4"/>
    </vehicle>
    <vehicle id="196" depart="980.00">
        <route edges="B5B4 B4B3 B3B2 B2B1 B1C1 C1D1 D1D2"/>
    </vehicle>
    <vehicle id="197" depart="985.00">
        <route edges="A0A1 A1A2 A2A3 A3A4 A4B4 B4C4"/>
    </vehicle>
    <vehicle id="198" depart="990.00">
        <route edges="C3C4 C4D4 D4D3 D3D2 D2D3"/>
    </vehicle>
    <vehicle id="199" depart="995.00">
        <route edges="D4E4 E4D4 D4C4 C4C5"/>
    </vehicle>
    <vehicle id="200" depart="1000.00">
        <route edges="C4B4 B4B3 B3B2 B2B3"/>
    </vehicle>
    <vehicle id="201" depart="1005.00">
        <route edges="C4D4 D4E4 E4E3 E3E2 E2E1 E1F1 F1F2"/>
    </vehicle>
    <vehicle id="202" depart="1010.00">
        <route edges="E3E4 E4D4 D4C4 C4B4 B4B3 B3B2 B2B1 B1B0"/>
    </vehicle>
    <vehicle id="203" depart="1015.00">
        <route edges="A3B3 B3B2 B2B1 B1B0 B0C0 C0D0 D0D1"/>
    </vehicle>
    <vehicle id="204" depart="1020.00">
        <route edges="D4C4 C4C3 C3C2 C2C1 C1C0 C0D0"/>
    </vehicle>
    <vehicle id="205" depart="1025.00">
        <route edges="E4E3 E3E2 E2E1"/>
    </vehicle>
    <vehicle id="206" depart="1030.00">
        <route edges="D5D4 D4D3 D3D2 D2C2 C2B2 B2C2"/>
    </vehicle>
    <vehicle id="207" depart="1035.00">
        <route edges="B2A2 A2A1 A1A0"/>
    </vehicle>
    <vehicle id="208" depart="1040.00">
        <route edges="B3B4 B4C4 C4C5 C5B5"/>
    </vehicle>
    <vehicle id="209" depart="1045.00">
        <route edges="E5D5 D5C5 C5B5 B5A5 A5A4 A4A3 A3A2"/>
    </vehicle>
    <vehicle id="210" depart="1050.00">
        <route edges="C3B3 B3B4 B4C4 C4D4 D4C4"/>
    </vehicle>
    <vehicle id="211" depart="1055.00">
        <route edges="B2A2 A2A1 A1A0 A0B0 B0C0 C0D0 D0E0 E0E1"/>
    </vehicle>
    <vehicle id="212" depart="1060.00">
        <route edges="C5D5 D5D4 D4D3 D3C3 C3B3 B3B4"/>
    </vehicle>
    <vehicle id="213" depart="1065.00">
        <route edges="D4E4 E4E3 E3E2 E2E1 E1E0 E0D0 D0C0 C0B0 B0A0 A0A1"/>
    </vehicle>
    <vehicle id="214" depart="1070.00">
        <route edges="E2E1 E1E2 E2F2"/>
    </vehicle>
    <vehicle id="215" depart="1075.00">
        <route edges="A4A5 A5B5 B5B4 B4B3 B3C3 C3C4"/>
    </vehicle>
    <vehicle id="216" depart="1080.00">
        <route edges="B1B2 B2B3 B3C3 C3D3 D3E3 E3F3 F3F4"/>
    </vehicle>
    <vehicle id="217" depart="1085.00">
        <route edges="D0E0 E0D0 D0C0 C0B0 B0A0 A0A1 A1A2 A2A3"/>
    </vehicle>
    <vehicle id="218" depart="1090.00">
        <route edges="B3B4 B4C4 C4D4 D4E4 E4E5 E5D5"/>
    </vehicle>
    <vehicle id="219" depart="1095.00">
        <route edges="C4C3 C3D3 D3E3 E3F3"/>
    </vehicle>
    <vehicle id="220" depart="1100.00">
        <route edges="D5D4 D4E4 E4F4 F4F5 F5E5"/>
    </vehicle>
    <vehicle id="221" depart="1105.00">
        <route edges="D3C3 C3D3 D3E3 E3F3 F3F4"/>
    </vehicle>
    <vehicle id="222" depart="1110.00">
        <route edges="F1E1 E1D1 D1D2 D2D3 D3D4"/>
    </vehicle>
    <vehicle id="223" depart="1115.00">
        <route edges="E1E0 E0D0 D0C0"/>
    </vehicle>
    <vehicle id="224" depart="1120.00">
        <route edges="E4E5 E5E4 E4E3 E3E2 E2E1 E1D1 D1D2"/>
    </vehicle>
    <vehicle id="225" depart="1125.00">
        <route edges="F1F0 F0E0 E0E1 E1E2 E2D2"/>
    </vehicle>
    <vehicle id="226" depart="1130.00">
        <route edges="C4D4 D4C4 C4B4 B4A4"/>
    </vehicle>
    <vehicle id="227" depart="1135.00">
        <route edges="B3B4 B4C4 C4D4 D4D3"/>
    </vehicle>
    <vehicle id="228" depart="1140.00">
        <route edges="E2E3 E3D3 D3D2 D2D1 D1D0 D0E0"/>
    </vehicle>
    <vehicle id="229" depart="1145.00">
        <route edges="D4C4 C4B4 B4B3"/>
    </vehicle>
    <vehicle id="230" depart="1150.00">
        <route edges="A3A4 A4B4 B4C4"/>
    </vehicle>
    <vehicle id="231" depart="1155.00">
        <route edges="B4B3 B3B2 B2B1 B1C1 C1C0 C0B0"/>
    </vehicle>
    <vehicle id="232" depart="1160.00">
        <route edges="D1D0 D0C0 C0B0 B0A0"/>
    </vehicle>
    <vehicle id="233" depart="1165.00">
        <route edges="B3A3 A3A2 A2A1 A1A0 A0B0 B0C0 C0D0 D0E0 E0E1"/>
    </vehicle>
    <vehicle id="234" depart="1170.00">
        <route edges="E0F0 F0F1 F1E1 E1D1 D1C1 C1B1 B1A1 A1A2 A2B2"/>
    </vehicle>
    <vehicle id="235" depart="1175.00">
        <route edges="C2D2 D2D1 D1D2"/>
    </vehicle>
    <vehicle id="236" depart="1180.00">
        <route edges="C3B3 B3B2 B2B1"/>
    </vehicle>
    <vehicle id="237" depart="1185.00">
        <route edges="C3C2 C2C1 C1D1 D1E1 E1F1 F1F2"/>
    </vehicle>
    <vehicle id="238" depart="1190.00">
        <route edges="D2E2 E2E1 E1E0 E0E1"/>
    </vehicle>
    <vehicle id="239" depart="1195.00">
        <route edges="E5E4 E4E3 E3E2 E2E3"/>
    </vehicle>
    <vehicle id="240" depart="1200.00">
        <route edges="C2B2 B2B1 B1B0 B0A0 A0A1"/>
    </vehicle>
    <vehicle id="241" depart="1205.00">
        <route edges="C1C0 C0D0 D0D1 D1D2 D2E2 E2E1"/>
    </vehicle>
    <vehicle id="242" depart="1210.00">
        <route edges="E5E4 E4E3 E3F3 F3F4"/>
    </vehicle>
    <vehicle id="243" depart="1215.00">
        <route edges="C3C2 C2D2 D2E2 E2D2"/>
    </vehicle>
    <vehicle id="244" depart="1220.00">
        <route edges="D1D2 D2D3 D3D2"/>
    </vehicle>
    <vehicle id="245" depart="1225.00">
        <route edges="B2C2"/>
    </vehicle>
    <vehicle id="246" depart="1230.00">
        <route edges="C3D3 D3D2 D2D1 D1C1 C1B1 B1A1 A1A2"/>
    </vehicle>
    <vehicle id="247" depart="1235.00">
        <route edges="C0D0 D0D1 D1D2 D2D3 D3D4 D4D5 D5E5"/>
    </vehicle>
    <vehicle id="248" depart="1240.00">
        <route edges="C2D2 D2D1 D1C1 C1B1 B1A1"/>
    </vehicle>
    <vehicle id="249" depart="1245.00">
        <route edges="C4D4 D4C4 C4B4 B4A4 A4A5 A5B5"/>
    </vehicle>
    <vehicle id="250" depart="1250.00">
        <route edges="D3E3 E3E2 E2E1 E1D1 D1C1 C1B1 B1A1 A1A2"/>
    </vehicle>
    <vehicle id="251" depart="1255.00">
        <route edges="C2C3 C3D3 D3D2 D2C2"/>
    </vehicle>
    <vehicle id="252" depart="1260.00">
        <route edges="A1A2 A2A3 A3A4 A4B4 B4C4 C4D4 D4D5"/>
    </vehicle>
    <vehicle id="253" depart="1265.00">
        <route edges="B0A0 A0A1 A1A2 A2A3 A3A4 A4B4 B4C4 C4C5"/>
    </vehicle>
    <vehicle id="254" depart="1270.00">
        <route edges="A2A3 A3B3 B3C3 C3C2 C2B2"/>
    </vehicle>
    <vehicle id="255" depart="1275.00">
        <route edges="B2B3 B3C3 C3C2 C2C1 C1C0 C0C1"/>
    </vehicle>
    <vehicle id="256" depart="1280.00">
        <route edges="E2E3 E3D3 D3D2 D2C2 C2B2"/>
    </vehicle>
    <vehicle id="257" depart="1285.00">
        <route edges="E2E1 E1E2 E2E3 E3E4 E4E5"/>
    </vehicle>
    <vehicle id="258" depart="1290.00">
        <route edges="B3C3 C3B3 B3A3 A3A4"/>
    </vehicle>
    <vehicle id="259" depart="1295.00">
        <route edges="A1A0 A0B0 B0C0 C0C1 C1D1 D1D0"/>
    </vehicle>
    <vehicle id="260" depart="1300.00">
        <route edges="F5F4 F4F3 F3F2 F2F1 F1E1 E1D1 D1C1 C1B1"/>
    </vehicle>
    <vehicle id="261" depart="1305.00">
        <route edges="D4E4 E4E3 E3D3"/>
    </vehicle>
    <vehicle id="262" depart="1310.00">
        <route edges="D4E4 E4E3 E3E2 E2E1"/>
    </vehicle>
    <vehicle id="263" depart="1315.00">
        <route edges="F3F2 F2E2 E2D2 D2C2 C2B2 B2A2"/>
    </vehicle>
    <vehicle id="264" depart="1320.00">
        <route edges="A1A0 A0B0 B0C0"/>
    </vehicle>
    <vehicle id="265" depart="1325.00">
        <route edges="A5B5 B5C5 C5D5 D5D4"/>
    </vehicle>
    <vehicle id="266" depart="1330.00">
        <route edges="D2C2 C2B2 B2C2"/>
    </vehicle>
    <vehicle id="267" depart="1335.00">
        <route edges="E0E1 E1E2 E2F2"/>
    </vehicle>
    <vehicle id="268" depart="1340.00">
        <route edges="B1B0 B0C0 C0C1 C1C2 C2C3 C3D3 D3D2"/>
    </vehicle>
    <vehicle id="269" depart="1345.00">
        <route edges="E2D2 D2C2 C2B2 B2A2 A2A3 A3A4 A4B4"/>
    </vehicle>